@<TRIPOS>MOLECULE
H2O
 3 2 0 0 0
SMALL
GASTEIGER

@<TRIPOS>ATOM
      1 O           0.0000    0.0000    0.0000 O.3     1  HOH1       -0.4105
      2 H           0.7568    0.0000    0.5860 H       0  HOH0        0.2052
      3 H          -0.7568    0.0000    0.5860 H       0  HOH0        0.2052
@<TRIPOS>BOND
     1     1     2    1
     2     1     3    1
